Test/Result.txt
---------------牛顿－拉夫逊法潮流计算结果----------

 节点计算结果：
节点     节点电压      节点相角（角度）      节点注入功率
 1     1.010000      0.000000      1.064979 + j 0.896924
 2     1.011670      -3.564942      0.000000 + j 0.000000
 3     0.953025      -6.376956      -1.250000 + j -0.900000
 4     0.983448      -5.629945      -0.900000 + j -0.500000
 5     0.988960      -3.282886      -1.000000 + j -0.750000
 6     1.016012      -0.817264      -0.350000 + j -0.100000
 7     1.010000      5.178562      1.630000 + j 0.802312
 8     1.032479      -1.464525      0.000000 + j 0.000000
 9     1.010000      1.416225      0.850000 + j 0.516283

线路计算结果：
节点I    节点J          线路功率S(I,J)               线路功率S(J,I)               线路损耗dS(I,J)
 2       3         0.625869 + j 0.592677       -0.632415 + j -0.609486       -0.006547 + j -0.016809
 2       4         0.428503 + j 0.197152       -0.436924 + j -0.252780       -0.008421 + j -0.055628
 3       6         -0.641746 + j -0.287813       0.639685 + j 0.219247       -0.002061 + j -0.068566
 4       8         -0.487438 + j -0.244819       0.475620 + j 0.108051       -0.011818 + j -0.136767
 6       5         0.636965 + j 0.280890       -0.638036 + j -0.320011       -0.001071 + j -0.039121
 5       8         -0.371973 + j -0.429414       0.366659 + j 0.351613       -0.005314 + j -0.077802
 1       2         1.064979 + j 0.896924       -1.170559 + j -0.782590       -0.105580 + j 0.114333
 7       6         1.484506 + j 0.789126       -1.652201 + j -0.599773       -0.167696 + j 0.189354
 9       8         0.807348 + j 0.515228       -0.893806 + j -0.458347       -0.086458 + j 0.056882

线路电流的计算结果：
节点I    节点J          元件I侧的电流             元件J侧的电流
 2       3      0.581024 + j -0.623174     -0.588449 + j 0.709275
 2       4      0.410623 + j -0.220837     -0.416919 + j 0.299380
 3       6      -0.635669 + j 0.374923     0.626462 + j -0.224750
 4       8      -0.468829 + j 0.296362     0.457833 + j -0.116392
 6       5      0.622920 + j -0.285377     -0.625570 + j 0.359998
 5       8      -0.350643 + j 0.455035     0.346305 + j -0.349517
 1       2      1.054435 + j -0.888043     -1.106717 + j 0.844011
 7       6      1.534329 + j -0.645459     -1.617578 + j 0.613455
 9       8      0.811718 + j -0.490215     -0.854060 + j 0.465909
